--------- BEAMDYN with OpenFAST INPUT FILE -------------------------------------------
BAR3 blade
---------------------- SIMULATION CONTROL --------------------------------------
True          Echo            - Echo input data to "<RootName>.ech" (flag)
False          QuasiStaticInit - Use quasistatic pre-conditioning with centripetal accelerations in initialization (flag) [dynamic solve only]
 0            rhoinf          - Numerical damping parameter for generalized-alpha integrator
 2            quadrature      - Quadrature method: 1=Gaussian; 2=Trapezoidal (switch)
"DEFAULT"     refine          - Refinement factor for trapezoidal quadrature (-). DEFAULT = 1 [used only when quadrature=2]
"DEFAULT"     n_fact          - Factorization frequency (-). DEFAULT = 5
"DEFAULT"     DTBeam          - Time step size (s).
"DEFAULT"     load_retries    - Number of factored load retries before quitting the aimulation
"DEFAULT"     NRMax           - Max number of iterations in Newton-Ralphson algorithm (-). DEFAULT = 10
"DEFAULT"     stop_tol        - Tolerance for stopping criterion (-)
"DEFAULT"     tngt_stf_fd     - Flag to use finite differenced tangent stiffness matrix (-)
"DEFAULT"     tngt_stf_comp   - Flag to compare analytical finite differenced tangent stiffness matrix  (-)
"DEFAULT"     tngt_stf_pert   - perturbation size for finite differencing (-)
"DEFAULT"     tngt_stf_difftol- Maximum allowable relative difference between analytical and fd tangent stiffness (-)
True          RotStates       - Orient states in the rotating frame during linearization? (flag) [used only when linearizing]
---------------------- GEOMETRY PARAMETER --------------------------------------
          1   member_total    - Total number of members (-)
         50   kp_total        - Total number of key points (-) [must be at least 3]
     1     50                 - Member number; Number of key points in this member
		 kp_xr 			 kp_yr 			 kp_zr 		 initial_twist
		  (m)  			  (m)  			  (m)  		   (deg)
	 0.00000e+00 	 0.00000e+00 	 0.00000e+00 	 20.
	 8.63467e-03 	 0.00000e+00 	 2.04074e+00 	 19.59183673
	 2.15019e-02 	 0.00000e+00 	 4.08148e+00 	 19.18367347
	 4.37747e-02 	 0.00000e+00 	 6.12222e+00 	 18.7755102
	 7.27647e-02 	 0.00000e+00 	 8.16296e+00 	 18.36734694
	 1.05859e-01 	 0.00000e+00 	 1.02037e+01 	 17.95918367
	 1.44569e-01 	 0.00000e+00 	 1.22444e+01 	 17.55102041
	 1.83806e-01 	 0.00000e+00 	 1.42852e+01 	 17.14285714
	 2.23391e-01 	 0.00000e+00 	 1.63259e+01 	 16.73469388
	 2.60385e-01 	 0.00000e+00 	 1.83667e+01 	 16.32653061
	 2.95273e-01 	 0.00000e+00 	 2.04074e+01 	 15.91836735
	 3.21803e-01 	 0.00000e+00 	 2.24481e+01 	 15.51020408
	 3.44403e-01 	 0.00000e+00 	 2.44889e+01 	 15.10204082
	 3.54565e-01 	 0.00000e+00 	 2.65296e+01 	 14.69387755
	 3.56325e-01 	 0.00000e+00 	 2.85704e+01 	 14.28571429
	 3.49085e-01 	 0.00000e+00 	 3.06111e+01 	 13.87755102
	 3.32060e-01 	 0.00000e+00 	 3.26518e+01 	 13.46938776
	 3.11591e-01 	 0.00000e+00 	 3.46926e+01 	 13.06122449
	 2.83390e-01 	 0.00000e+00 	 3.67333e+01 	 12.65306122
	 2.53147e-01 	 0.00000e+00 	 3.87741e+01 	 12.24489796
	 2.20011e-01 	 0.00000e+00 	 4.08148e+01 	 11.83673469
	 1.80702e-01 	 0.00000e+00 	 4.28555e+01 	 11.42857143
	 1.38387e-01 	 0.00000e+00 	 4.48963e+01 	 11.02040816
	 7.77649e-02 	 0.00000e+00 	 4.69370e+01 	 10.6122449
	 1.17613e-02 	 0.00000e+00 	 4.89778e+01 	 10.20408163
	 -6.44672e-02 	 0.00000e+00 	 5.10185e+01 	 9.79591837
	 -1.46733e-01 	 0.00000e+00 	 5.30592e+01 	  9.3877551
	 -2.32177e-01 	 0.00000e+00 	 5.51000e+01 	  8.97959184
	 -3.25989e-01 	 0.00000e+00 	 5.71407e+01 	  8.57142857
	 -4.25425e-01 	 0.00000e+00 	 5.91815e+01 	  8.16326531
	 -5.38845e-01 	 0.00000e+00 	 6.12222e+01 	  7.75510204
	 -6.61935e-01 	 0.00000e+00 	 6.32629e+01 	  7.34693878
	 -7.91852e-01 	 0.00000e+00 	 6.53037e+01 	  6.93877551
	 -9.31171e-01 	 0.00000e+00 	 6.73444e+01 	  6.53061224
	 -1.07298e+00 	 0.00000e+00 	 6.93852e+01 	  6.12244898
	 -1.22016e+00 	 0.00000e+00 	 7.14259e+01 	  5.71428571
	 -1.37464e+00 	 0.00000e+00 	 7.34666e+01 	  5.30612245
	 -1.53592e+00 	 0.00000e+00 	 7.55074e+01 	  4.89795918
	 -1.70837e+00 	 0.00000e+00 	 7.75481e+01 	  4.48979592
	 -1.88448e+00 	 0.00000e+00 	 7.95889e+01 	  4.08163265
	 -2.06891e+00 	 0.00000e+00 	 8.16296e+01 	  3.67346939
	 -2.25762e+00 	 0.00000e+00 	 8.36703e+01 	  3.26530612
	 -2.45156e+00 	 0.00000e+00 	 8.57111e+01 	  2.85714286
	 -2.65327e+00 	 0.00000e+00 	 8.77518e+01 	  2.44897959
	 -2.85830e+00 	 0.00000e+00 	 8.97926e+01 	  2.04081633
	 -3.07501e+00 	 0.00000e+00 	 9.18333e+01 	  1.63265306
	 -3.29647e+00 	 0.00000e+00 	 9.38740e+01 	  1.2244898
	 -3.52570e+00 	 0.00000e+00 	 9.59148e+01 	  0.81632653
	 -3.76140e+00 	 0.00000e+00 	 9.79555e+01 	  0.40816327
	 -4.00000e+00 	 0.00000e+00 	 9.99963e+01 	  0.
---------------------- MESH PARAMETER ------------------------------------------
          5   order_elem     - Order of interpolation (basis) function (-)
---------------------- MATERIAL PARAMETER --------------------------------------
"BAR3_BeamDyn_Blade.dat"    BldFile - Name of file containing properties for blade (quoted string)
---------------------- PITCH ACTUATOR PARAMETERS -------------------------------
False         UsePitchAct - Whether a pitch actuator should be used (flag)
        200   PitchJ      - Pitch actuator inertia (kg-m^2) [used only when UsePitchAct is true]
      2E+07   PitchK      - Pitch actuator stiffness (kg-m^2/s^2) [used only when UsePitchAct is true]
     500000   PitchC      - Pitch actuator damping (kg-m^2/s) [used only when UsePitchAct is true]
---------------------- OUTPUTS -------------------------------------------------
True          SumPrint       - Print summary data to "<RootName>.sum" (flag)
"ES30.16"    OutFmt         - Format used for text tabular output, excluding the time channel.
          1   NNodeOuts      - Number of nodes to output to file [0 - 9] (-)
1     OutNd          - Nodes whose values will be output  (-) OutNd       - Nodes whose values will be output  (-) OutNd       - Nodes whose values will be output  (-) OutNd       - Nodes whose values will be output  (-) OutNd       - Nodes whose values will be output  (-) OutNd       - Nodes whose values will be output  (-) OutNd       - Nodes whose values will be output  (-) OutNd       - Nodes whose values will be output  (-) OutNd       - Nodes whose values will be output  (-)
          OutList            - The next line(s) contains a list of output parameters. See OutListParameters.xlsx for a listing of available output channels, (-)
"TipRDxr"
"TipRDyr"
"TipRDzr"
"TipTDxr"
"TipTDyr"
"TipTDzr"
END of input file (the word "END" must appear in the first 3 columns of this last OutList line)---------------------------------------------------------------------------------------
